


 28 28  0  0  0  0  0  0  0  0999 V2000
    5.4853  -17.4676  -12.1001 C   0  0  0  0  0  0  0  0  0  0  0  0
    4.6771  -16.6622  -13.1410 C   0  0  0  0  0  0  0  0  0  0  0  0
    4.3515  -15.3195  -12.4834 C   0  0  0  0  0  0  0  0  0  0  0  0
    4.4661  -15.5981  -11.0318 C   0  0  0  0  0  0  0  0  0  0  0  0
    4.1138  -14.8038  -10.1731 O   0  0  0  0  0  0  0  0  0  0  0  0
    5.0192  -16.9468  -10.7243 C   0  0  0  0  0  0  0  0  0  0  0  0
    5.4182  -16.4570  -14.3158 O   0  0  0  0  0  0  0  0  0  0  0  0
    5.2859  -17.2613  -14.8809 H   0  0  0  0  0  0  0  0  0  0  0  0
    4.0469  -19.4918  -12.2628 C   0  0  0  0  0  0  0  0  0  0  0  0
    5.2778  -18.9571  -12.2442 C   0  0  0  0  0  0  0  0  0  0  0  0
    3.8218  -20.9836  -12.3720 C   0  0  0  0  0  0  0  0  0  0  0  0
    2.7802  -21.2454  -13.2773 O   0  0  0  0  0  0  0  0  0  0  0  0
    1.9367  -20.9711  -12.8298 H   0  0  0  0  0  0  0  0  0  0  0  0
    5.0921  -21.7188  -12.8359 C   0  0  0  0  0  0  0  0  0  0  0  0
    5.0325  -23.2276  -12.5345 C   0  0  0  0  0  0  0  0  0  0  0  0
    5.1063  -23.5322  -11.0302 C   0  0  0  0  0  0  0  0  0  0  0  0
    6.2261  -25.1650   -9.4602 C   0  0  0  0  0  0  0  0  0  0  0  0
    5.4159  -25.0105  -10.7436 C   0  0  0  0  0  0  0  0  0  0  0  0
    6.1433  -16.9317   -9.6651 C   0  0  0  0  0  0  0  0  0  0  0  0
    7.3259  -16.0617  -10.0317 C   0  0  0  0  0  0  0  0  0  0  0  0
    8.1956  -15.5728   -9.1315 C   0  0  0  0  0  0  0  0  0  0  0  0
    8.1455  -15.8477   -7.6457 C   0  0  0  0  0  0  0  0  0  0  0  0
    9.4796  -16.4138   -7.1364 C   0  0  0  0  0  0  0  0  0  0  0  0
   10.6585  -15.4331   -7.2715 C   0  0  0  0  0  0  0  0  0  0  0  0
   10.3645  -14.1063   -6.6367 C   0  0  0  0  0  0  0  0  0  0  0  0
   10.1574  -14.0364   -5.3955 O   0  0  0  0  0  0  0  0  0  0  0  0
   10.3022  -12.9528   -7.4125 O   0  0  0  0  0  0  0  0  0  0  0  0
   10.0990  -12.0547   -6.9924 H   0  0  0  0  0  0  0  0  0  0  0  0
 17 18  1  0  0  0
 18 16  1  0  0  0
 16 15  1  0  0  0
 15 14  1  0  0  0
 14 11  1  0  0  0
 11  9  1  0  0  0
 11 12  1  0  0  0
  9 10  2  0  0  0
 10  1  1  0  0  0
  1  2  1  0  0  0
  1  6  1  0  0  0
  2  3  1  0  0  0
  2  7  1  0  0  0
  3  4  1  0  0  0
  4  5  2  0  0  0
  4  6  1  0  0  0
  6 19  1  0  0  0
 19 20  1  0  0  0
 20 21  2  0  0  0
 21 22  1  0  0  0
 22 23  1  0  0  0
 23 24  1  0  0  0
 24 25  1  0  0  0
 25 26  2  0  0  0
 25 27  1  0  0  0
 27 28  1  0  0  0
  7  8  1  0  0  0
 12 13  1  0  0  0
M  END
> <COMPND>
    KG8hKT.pdb 

> <AUTHOR>
    GENERATED BY OPEN BABEL 3.1.0

> <MASTER>
        0    0    0    0    0    0    0    0   57    0   57    0

> <minimizedAffinity>
-6.58633

> <CNNscore>
0.7830817699

> <CNNaffinity>
5.3759164810

> <CNN_VS>
4.2097821236

> <CNNaffinity_variance>
0.1344915926

$$$$



 28 28  0  0  0  0  0  0  0  0999 V2000
   10.8064  -26.1580  -13.2482 C   0  0  0  0  0  0  0  0  0  0  0  0
   12.0594  -26.1498  -14.1511 C   0  0  0  0  0  0  0  0  0  0  0  0
   11.8485  -27.2576  -15.1851 C   0  0  0  0  0  0  0  0  0  0  0  0
   10.8555  -28.1546  -14.5469 C   0  0  0  0  0  0  0  0  0  0  0  0
   10.5587  -29.2485  -15.0027 O   0  0  0  0  0  0  0  0  0  0  0  0
   10.2822  -27.6090  -13.2847 C   0  0  0  0  0  0  0  0  0  0  0  0
   12.2169  -24.9121  -14.7952 O   0  0  0  0  0  0  0  0  0  0  0  0
   12.7051  -24.3222  -14.1647 H   0  0  0  0  0  0  0  0  0  0  0  0
   10.9070  -24.4287  -11.4616 C   0  0  0  0  0  0  0  0  0  0  0  0
   11.1127  -25.6994  -11.8417 C   0  0  0  0  0  0  0  0  0  0  0  0
   11.2399  -23.9445  -10.0678 C   0  0  0  0  0  0  0  0  0  0  0  0
   11.3019  -22.5413  -10.0507 O   0  0  0  0  0  0  0  0  0  0  0  0
   12.1336  -22.2860  -10.5305 H   0  0  0  0  0  0  0  0  0  0  0  0
   10.1995  -24.4176   -9.0367 C   0  0  0  0  0  0  0  0  0  0  0  0
   10.8522  -25.1318   -7.8390 C   0  0  0  0  0  0  0  0  0  0  0  0
   12.3658  -25.3247   -8.0202 C   0  0  0  0  0  0  0  0  0  0  0  0
   13.7367  -26.0803   -6.0367 C   0  0  0  0  0  0  0  0  0  0  0  0
   13.1676  -24.8797   -6.7864 C   0  0  0  0  0  0  0  0  0  0  0  0
    8.7424  -27.7033  -13.2088 C   0  0  0  0  0  0  0  0  0  0  0  0
    8.2022  -27.8693  -11.8050 C   0  0  0  0  0  0  0  0  0  0  0  0
    6.9946  -27.4254  -11.4167 C   0  0  0  0  0  0  0  0  0  0  0  0
    5.9955  -26.7401  -12.3209 C   0  0  0  0  0  0  0  0  0  0  0  0
    5.0405  -27.7538  -12.9689 C   0  0  0  0  0  0  0  0  0  0  0  0
    3.6665  -27.1626  -13.3333 C   0  0  0  0  0  0  0  0  0  0  0  0
    3.7506  -26.2098  -14.4886 C   0  0  0  0  0  0  0  0  0  0  0  0
    3.2667  -25.0508  -14.3829 O   0  0  0  0  0  0  0  0  0  0  0  0
    4.3450  -26.6028  -15.6838 O   0  0  0  0  0  0  0  0  0  0  0  0
    4.4008  -25.9674  -16.4696 H   0  0  0  0  0  0  0  0  0  0  0  0
 17 18  1  0  0  0
 18 16  1  0  0  0
 16 15  1  0  0  0
 15 14  1  0  0  0
 14 11  1  0  0  0
 11  9  1  0  0  0
 11 12  1  0  0  0
  9 10  2  0  0  0
 10  1  1  0  0  0
  1  2  1  0  0  0
  1  6  1  0  0  0
  2  3  1  0  0  0
  2  7  1  0  0  0
  3  4  1  0  0  0
  4  5  2  0  0  0
  4  6  1  0  0  0
  6 19  1  0  0  0
 19 20  1  0  0  0
 20 21  2  0  0  0
 21 22  1  0  0  0
 22 23  1  0  0  0
 23 24  1  0  0  0
 24 25  1  0  0  0
 25 26  2  0  0  0
 25 27  1  0  0  0
 27 28  1  0  0  0
  7  8  1  0  0  0
 12 13  1  0  0  0
M  END
> <COMPND>
    KG8hKT.pdb 

> <AUTHOR>
    GENERATED BY OPEN BABEL 3.1.0

> <MASTER>
        0    0    0    0    0    0    0    0   57    0   57    0

> <minimizedAffinity>
-5.76204

> <CNNscore>
0.7045970559

> <CNNaffinity>
5.4000921249

> <CNN_VS>
3.8048889637

> <CNNaffinity_variance>
0.1587215960

$$$$



 28 28  0  0  0  0  0  0  0  0999 V2000
    9.6768  -24.4702   -7.7246 C   0  0  0  0  0  0  0  0  0  0  0  0
    8.3489  -24.7012   -6.9706 C   0  0  0  0  0  0  0  0  0  0  0  0
    8.7241  -24.9352   -5.5059 C   0  0  0  0  0  0  0  0  0  0  0  0
   10.1410  -25.3671   -5.5669 C   0  0  0  0  0  0  0  0  0  0  0  0
   10.7436  -25.8074   -4.5997 O   0  0  0  0  0  0  0  0  0  0  0  0
   10.7452  -25.2433   -6.9231 C   0  0  0  0  0  0  0  0  0  0  0  0
    7.4993  -23.5886   -7.0794 O   0  0  0  0  0  0  0  0  0  0  0  0
    6.9993  -23.6932   -7.9295 H   0  0  0  0  0  0  0  0  0  0  0  0
    8.4777  -25.4487   -9.6732 C   0  0  0  0  0  0  0  0  0  0  0  0
    9.6041  -24.9271   -9.1628 C   0  0  0  0  0  0  0  0  0  0  0  0
    8.3974  -25.9424  -11.1008 C   0  0  0  0  0  0  0  0  0  0  0  0
    9.6731  -25.9184  -11.6879 O   0  0  0  0  0  0  0  0  0  0  0  0
    9.8987  -24.9634  -11.8430 H   0  0  0  0  0  0  0  0  0  0  0  0
    7.8315  -27.3717  -11.1782 C   0  0  0  0  0  0  0  0  0  0  0  0
    6.8782  -27.5549  -12.3734 C   0  0  0  0  0  0  0  0  0  0  0  0
    7.6269  -27.7441  -13.7018 C   0  0  0  0  0  0  0  0  0  0  0  0
    5.2974  -27.2276  -14.5332 C   0  0  0  0  0  0  0  0  0  0  0  0
    6.7655  -27.3755  -14.9206 C   0  0  0  0  0  0  0  0  0  0  0  0
   12.1279  -24.5550   -6.9278 C   0  0  0  0  0  0  0  0  0  0  0  0
   13.2946  -25.5119   -6.8156 C   0  0  0  0  0  0  0  0  0  0  0  0
   14.4775  -25.3153   -7.4223 C   0  0  0  0  0  0  0  0  0  0  0  0
   14.8262  -24.1074   -8.2620 C   0  0  0  0  0  0  0  0  0  0  0  0
   15.2878  -24.5184   -9.6683 C   0  0  0  0  0  0  0  0  0  0  0  0
   14.5755  -25.7706  -10.2109 C   0  0  0  0  0  0  0  0  0  0  0  0
   15.5085  -26.9375  -10.3437 C   0  0  0  0  0  0  0  0  0  0  0  0
   15.1854  -27.9209  -11.0628 O   0  0  0  0  0  0  0  0  0  0  0  0
   16.7227  -26.9494   -9.6641 O   0  0  0  0  0  0  0  0  0  0  0  0
   17.3551  -27.7354   -9.7444 H   0  0  0  0  0  0  0  0  0  0  0  0
 17 18  1  0  0  0
 18 16  1  0  0  0
 16 15  1  0  0  0
 15 14  1  0  0  0
 14 11  1  0  0  0
 11  9  1  0  0  0
 11 12  1  0  0  0
  9 10  2  0  0  0
 10  1  1  0  0  0
  1  2  1  0  0  0
  1  6  1  0  0  0
  2  3  1  0  0  0
  2  7  1  0  0  0
  3  4  1  0  0  0
  4  5  2  0  0  0
  4  6  1  0  0  0
  6 19  1  0  0  0
 19 20  1  0  0  0
 20 21  2  0  0  0
 21 22  1  0  0  0
 22 23  1  0  0  0
 23 24  1  0  0  0
 24 25  1  0  0  0
 25 26  2  0  0  0
 25 27  1  0  0  0
 27 28  1  0  0  0
  7  8  1  0  0  0
 12 13  1  0  0  0
M  END
> <COMPND>
    KG8hKT.pdb 

> <AUTHOR>
    GENERATED BY OPEN BABEL 3.1.0

> <MASTER>
        0    0    0    0    0    0    0    0   57    0   57    0

> <minimizedAffinity>
-7.29111

> <CNNscore>
0.6620330811

> <CNNaffinity>
5.4756865501

> <CNN_VS>
3.6250855923

> <CNNaffinity_variance>
0.0531996116

$$$$



 28 28  0  0  0  0  0  0  0  0999 V2000
    8.8541  -24.8417   -7.2690 C   0  0  0  0  0  0  0  0  0  0  0  0
    8.8521  -25.3563   -5.8129 C   0  0  0  0  0  0  0  0  0  0  0  0
   10.2772  -25.1649   -5.2899 C   0  0  0  0  0  0  0  0  0  0  0  0
   11.1011  -25.0987   -6.5207 C   0  0  0  0  0  0  0  0  0  0  0  0
   12.3225  -25.1167   -6.5043 O   0  0  0  0  0  0  0  0  0  0  0  0
   10.2984  -25.0417   -7.7744 C   0  0  0  0  0  0  0  0  0  0  0  0
    7.9456  -24.6367   -5.0179 O   0  0  0  0  0  0  0  0  0  0  0  0
    7.0588  -25.0643   -5.1378 H   0  0  0  0  0  0  0  0  0  0  0  0
    7.1356  -24.9138   -9.0675 C   0  0  0  0  0  0  0  0  0  0  0  0
    7.8450  -25.5632   -8.1313 C   0  0  0  0  0  0  0  0  0  0  0  0
    6.0972  -25.6135   -9.9161 C   0  0  0  0  0  0  0  0  0  0  0  0
    5.0020  -24.7609  -10.1320 O   0  0  0  0  0  0  0  0  0  0  0  0
    4.5134  -24.6990   -9.2692 H   0  0  0  0  0  0  0  0  0  0  0  0
    6.6731  -26.0515  -11.2748 C   0  0  0  0  0  0  0  0  0  0  0  0
    7.6186  -27.2595  -11.1425 C   0  0  0  0  0  0  0  0  0  0  0  0
    8.3660  -27.5697  -12.4487 C   0  0  0  0  0  0  0  0  0  0  0  0
    8.1580  -27.5404  -14.9668 C   0  0  0  0  0  0  0  0  0  0  0  0
    7.4160  -27.7276  -13.6470 C   0  0  0  0  0  0  0  0  0  0  0  0
   10.7580  -23.9432   -8.7582 C   0  0  0  0  0  0  0  0  0  0  0  0
   10.5657  -24.2999  -10.2161 C   0  0  0  0  0  0  0  0  0  0  0  0
   11.3570  -23.8453  -11.2025 C   0  0  0  0  0  0  0  0  0  0  0  0
   12.5626  -22.9556  -11.0009 C   0  0  0  0  0  0  0  0  0  0  0  0
   12.2834  -21.5203  -11.4718 C   0  0  0  0  0  0  0  0  0  0  0  0
   12.3322  -21.3515  -13.0012 C   0  0  0  0  0  0  0  0  0  0  0  0
   13.4747  -22.1043  -13.6159 C   0  0  0  0  0  0  0  0  0  0  0  0
   14.6485  -21.6570  -13.5137 O   0  0  0  0  0  0  0  0  0  0  0  0
   13.2452  -23.2862  -14.3136 O   0  0  0  0  0  0  0  0  0  0  0  0
   14.0101  -23.7970  -14.7357 H   0  0  0  0  0  0  0  0  0  0  0  0
 17 18  1  0  0  0
 18 16  1  0  0  0
 16 15  1  0  0  0
 15 14  1  0  0  0
 14 11  1  0  0  0
 11  9  1  0  0  0
 11 12  1  0  0  0
  9 10  2  0  0  0
 10  1  1  0  0  0
  1  2  1  0  0  0
  1  6  1  0  0  0
  2  3  1  0  0  0
  2  7  1  0  0  0
  3  4  1  0  0  0
  4  5  2  0  0  0
  4  6  1  0  0  0
  6 19  1  0  0  0
 19 20  1  0  0  0
 20 21  2  0  0  0
 21 22  1  0  0  0
 22 23  1  0  0  0
 23 24  1  0  0  0
 24 25  1  0  0  0
 25 26  2  0  0  0
 25 27  1  0  0  0
 27 28  1  0  0  0
  7  8  1  0  0  0
 12 13  1  0  0  0
M  END
> <COMPND>
    KG8hKT.pdb 

> <AUTHOR>
    GENERATED BY OPEN BABEL 3.1.0

> <MASTER>
        0    0    0    0    0    0    0    0   57    0   57    0

> <minimizedAffinity>
-6.40533

> <CNNscore>
0.6584485769

> <CNNaffinity>
5.4362707138

> <CNN_VS>
3.5795047283

> <CNNaffinity_variance>
0.0354999006

$$$$



 28 28  0  0  0  0  0  0  0  0999 V2000
    8.9893  -24.9053   -7.4701 C   0  0  0  0  0  0  0  0  0  0  0  0
    8.5046  -25.3651   -6.0777 C   0  0  0  0  0  0  0  0  0  0  0  0
    9.7388  -25.3637   -5.1734 C   0  0  0  0  0  0  0  0  0  0  0  0
   10.8741  -25.4582   -6.1222 C   0  0  0  0  0  0  0  0  0  0  0  0
   12.0257  -25.6514   -5.7631 O   0  0  0  0  0  0  0  0  0  0  0  0
   10.4712  -25.3282   -7.5506 C   0  0  0  0  0  0  0  0  0  0  0  0
    7.5287  -24.4962   -5.5637 O   0  0  0  0  0  0  0  0  0  0  0  0
    6.6577  -24.7953   -5.9318 H   0  0  0  0  0  0  0  0  0  0  0  0
    6.9500  -25.0232   -8.8914 C   0  0  0  0  0  0  0  0  0  0  0  0
    8.1662  -25.5026   -8.5874 C   0  0  0  0  0  0  0  0  0  0  0  0
    6.0984  -25.6307   -9.9840 C   0  0  0  0  0  0  0  0  0  0  0  0
    4.8417  -25.0040  -10.0156 O   0  0  0  0  0  0  0  0  0  0  0  0
    4.3471  -25.3146   -9.2119 H   0  0  0  0  0  0  0  0  0  0  0  0
    6.7646  -25.4983  -11.3653 C   0  0  0  0  0  0  0  0  0  0  0  0
    6.8990  -26.8567  -12.0777 C   0  0  0  0  0  0  0  0  0  0  0  0
    8.2016  -27.5868  -11.7152 C   0  0  0  0  0  0  0  0  0  0  0  0
    8.2773  -27.6993  -14.2383 C   0  0  0  0  0  0  0  0  0  0  0  0
    9.0681  -27.8916  -12.9480 C   0  0  0  0  0  0  0  0  0  0  0  0
   11.3444  -24.3411   -8.3561 C   0  0  0  0  0  0  0  0  0  0  0  0
   11.8173  -23.1438   -7.5606 C   0  0  0  0  0  0  0  0  0  0  0  0
   13.0967  -22.7343   -7.5249 C   0  0  0  0  0  0  0  0  0  0  0  0
   14.2297  -23.3752   -8.2938 C   0  0  0  0  0  0  0  0  0  0  0  0
   14.8493  -24.5410   -7.5087 C   0  0  0  0  0  0  0  0  0  0  0  0
   14.6825  -25.9076   -8.1976 C   0  0  0  0  0  0  0  0  0  0  0  0
   15.7388  -26.1496   -9.2346 C   0  0  0  0  0  0  0  0  0  0  0  0
   16.6797  -25.3232   -9.3769 O   0  0  0  0  0  0  0  0  0  0  0  0
   15.6778  -27.2731  -10.0533 O   0  0  0  0  0  0  0  0  0  0  0  0
   16.3838  -27.4405  -10.7588 H   0  0  0  0  0  0  0  0  0  0  0  0
 17 18  1  0  0  0
 18 16  1  0  0  0
 16 15  1  0  0  0
 15 14  1  0  0  0
 14 11  1  0  0  0
 11  9  1  0  0  0
 11 12  1  0  0  0
  9 10  2  0  0  0
 10  1  1  0  0  0
  1  2  1  0  0  0
  1  6  1  0  0  0
  2  3  1  0  0  0
  2  7  1  0  0  0
  3  4  1  0  0  0
  4  5  2  0  0  0
  4  6  1  0  0  0
  6 19  1  0  0  0
 19 20  1  0  0  0
 20 21  2  0  0  0
 21 22  1  0  0  0
 22 23  1  0  0  0
 23 24  1  0  0  0
 24 25  1  0  0  0
 25 26  2  0  0  0
 25 27  1  0  0  0
 27 28  1  0  0  0
  7  8  1  0  0  0
 12 13  1  0  0  0
M  END
> <COMPND>
    KG8hKT.pdb 

> <AUTHOR>
    GENERATED BY OPEN BABEL 3.1.0

> <MASTER>
        0    0    0    0    0    0    0    0   57    0   57    0

> <minimizedAffinity>
-7.34032

> <CNNscore>
0.6082541347

> <CNNaffinity>
5.3591365814

> <CNN_VS>
3.2597169876

> <CNNaffinity_variance>
0.2171151936

$$$$



 28 28  0  0  0  0  0  0  0  0999 V2000
   10.6104  -26.2520  -12.9540 C   0  0  0  0  0  0  0  0  0  0  0  0
   12.0013  -26.2323  -13.6251 C   0  0  0  0  0  0  0  0  0  0  0  0
   11.9610  -27.2965  -14.7236 C   0  0  0  0  0  0  0  0  0  0  0  0
   10.8623  -28.1989  -14.3036 C   0  0  0  0  0  0  0  0  0  0  0  0
   10.6371  -29.2694  -14.8475 O   0  0  0  0  0  0  0  0  0  0  0  0
   10.0845  -27.6910  -13.1390 C   0  0  0  0  0  0  0  0  0  0  0  0
   12.2821  -24.9743  -14.1819 O   0  0  0  0  0  0  0  0  0  0  0  0
   12.6598  -24.4174  -13.4532 H   0  0  0  0  0  0  0  0  0  0  0  0
    9.7197  -25.0874  -10.9433 C   0  0  0  0  0  0  0  0  0  0  0  0
   10.6728  -25.8523  -11.4984 C   0  0  0  0  0  0  0  0  0  0  0  0
    9.7838  -24.6497   -9.4968 C   0  0  0  0  0  0  0  0  0  0  0  0
    8.7300  -25.2320   -8.7734 O   0  0  0  0  0  0  0  0  0  0  0  0
    7.8975  -24.7724   -9.0610 H   0  0  0  0  0  0  0  0  0  0  0  0
   11.1220  -25.0385   -8.8428 C   0  0  0  0  0  0  0  0  0  0  0  0
   11.6742  -23.9194   -7.9409 C   0  0  0  0  0  0  0  0  0  0  0  0
   10.9510  -22.5802   -8.1523 C   0  0  0  0  0  0  0  0  0  0  0  0
   11.8436  -21.6439  -10.3228 C   0  0  0  0  0  0  0  0  0  0  0  0
   11.8544  -21.5197   -8.8023 C   0  0  0  0  0  0  0  0  0  0  0  0
    8.5539  -27.7605  -13.3347 C   0  0  0  0  0  0  0  0  0  0  0  0
    7.7680  -27.8186  -12.0429 C   0  0  0  0  0  0  0  0  0  0  0  0
    6.4349  -27.6624  -11.9771 C   0  0  0  0  0  0  0  0  0  0  0  0
    5.5312  -27.4485  -13.1700 C   0  0  0  0  0  0  0  0  0  0  0  0
    4.6347  -26.2159  -12.9787 C   0  0  0  0  0  0  0  0  0  0  0  0
    5.0169  -25.3574  -11.7593 C   0  0  0  0  0  0  0  0  0  0  0  0
    5.3973  -23.9601  -12.1498 C   0  0  0  0  0  0  0  0  0  0  0  0
    4.8689  -22.9782  -11.5622 O   0  0  0  0  0  0  0  0  0  0  0  0
    6.3182  -23.7397  -13.1695 O   0  0  0  0  0  0  0  0  0  0  0  0
    6.5759  -22.7998  -13.4423 H   0  0  0  0  0  0  0  0  0  0  0  0
 17 18  1  0  0  0
 18 16  1  0  0  0
 16 15  1  0  0  0
 15 14  1  0  0  0
 14 11  1  0  0  0
 11  9  1  0  0  0
 11 12  1  0  0  0
  9 10  2  0  0  0
 10  1  1  0  0  0
  1  2  1  0  0  0
  1  6  1  0  0  0
  2  3  1  0  0  0
  2  7  1  0  0  0
  3  4  1  0  0  0
  4  5  2  0  0  0
  4  6  1  0  0  0
  6 19  1  0  0  0
 19 20  1  0  0  0
 20 21  2  0  0  0
 21 22  1  0  0  0
 22 23  1  0  0  0
 23 24  1  0  0  0
 24 25  1  0  0  0
 25 26  2  0  0  0
 25 27  1  0  0  0
 27 28  1  0  0  0
  7  8  1  0  0  0
 12 13  1  0  0  0
M  END
> <COMPND>
    KG8hKT.pdb 

> <AUTHOR>
    GENERATED BY OPEN BABEL 3.1.0

> <MASTER>
        0    0    0    0    0    0    0    0   57    0   57    0

> <minimizedAffinity>
-5.68228

> <CNNscore>
0.5834975243

> <CNNaffinity>
5.1027121544

> <CNN_VS>
2.9774198532

> <CNNaffinity_variance>
0.1432465017

$$$$



 28 28  0  0  0  0  0  0  0  0999 V2000
   13.8697  -25.2185   -9.8310 C   0  0  0  0  0  0  0  0  0  0  0  0
   15.0452  -25.6861   -8.9452 C   0  0  0  0  0  0  0  0  0  0  0  0
   16.0389  -26.3755   -9.8825 C   0  0  0  0  0  0  0  0  0  0  0  0
   15.2152  -26.7574  -11.0544 C   0  0  0  0  0  0  0  0  0  0  0  0
   15.6268  -27.4814  -11.9482 O   0  0  0  0  0  0  0  0  0  0  0  0
   13.8332  -26.2021  -11.0196 C   0  0  0  0  0  0  0  0  0  0  0  0
   15.6621  -24.6019   -8.3007 O   0  0  0  0  0  0  0  0  0  0  0  0
   15.1455  -24.4311   -7.4715 H   0  0  0  0  0  0  0  0  0  0  0  0
   12.5237  -25.3157   -7.7402 C   0  0  0  0  0  0  0  0  0  0  0  0
   12.5614  -25.1904   -9.0760 C   0  0  0  0  0  0  0  0  0  0  0  0
   11.2208  -25.3239   -6.9718 C   0  0  0  0  0  0  0  0  0  0  0  0
   11.2438  -24.3294   -5.9802 O   0  0  0  0  0  0  0  0  0  0  0  0
   11.8681  -24.6439   -5.2742 H   0  0  0  0  0  0  0  0  0  0  0  0
   10.0128  -25.0888   -7.8963 C   0  0  0  0  0  0  0  0  0  0  0  0
    8.6742  -25.3386   -7.1775 C   0  0  0  0  0  0  0  0  0  0  0  0
    7.7014  -24.1571   -7.3145 C   0  0  0  0  0  0  0  0  0  0  0  0
    7.3535  -21.9217   -6.1890 C   0  0  0  0  0  0  0  0  0  0  0  0
    7.4689  -23.4286   -5.9809 C   0  0  0  0  0  0  0  0  0  0  0  0
   13.3945  -25.5412  -12.3450 C   0  0  0  0  0  0  0  0  0  0  0  0
   12.2288  -26.2288  -13.0218 C   0  0  0  0  0  0  0  0  0  0  0  0
   12.1597  -26.4417  -14.3469 C   0  0  0  0  0  0  0  0  0  0  0  0
   13.2379  -26.0674  -15.3383 C   0  0  0  0  0  0  0  0  0  0  0  0
   14.2716  -27.1932  -15.4921 C   0  0  0  0  0  0  0  0  0  0  0  0
   14.1597  -27.9570  -16.8240 C   0  0  0  0  0  0  0  0  0  0  0  0
   13.7891  -29.3960  -16.6199 C   0  0  0  0  0  0  0  0  0  0  0  0
   14.5347  -30.3063  -17.0714 O   0  0  0  0  0  0  0  0  0  0  0  0
   12.6175  -29.7332  -15.9493 O   0  0  0  0  0  0  0  0  0  0  0  0
   12.3579  -30.7018  -15.8123 H   0  0  0  0  0  0  0  0  0  0  0  0
 17 18  1  0  0  0
 18 16  1  0  0  0
 16 15  1  0  0  0
 15 14  1  0  0  0
 14 11  1  0  0  0
 11  9  1  0  0  0
 11 12  1  0  0  0
  9 10  2  0  0  0
 10  1  1  0  0  0
  1  2  1  0  0  0
  1  6  1  0  0  0
  2  3  1  0  0  0
  2  7  1  0  0  0
  3  4  1  0  0  0
  4  5  2  0  0  0
  4  6  1  0  0  0
  6 19  1  0  0  0
 19 20  1  0  0  0
 20 21  2  0  0  0
 21 22  1  0  0  0
 22 23  1  0  0  0
 23 24  1  0  0  0
 24 25  1  0  0  0
 25 26  2  0  0  0
 25 27  1  0  0  0
 27 28  1  0  0  0
  7  8  1  0  0  0
 12 13  1  0  0  0
M  END
> <COMPND>
    KG8hKT.pdb 

> <AUTHOR>
    GENERATED BY OPEN BABEL 3.1.0

> <MASTER>
        0    0    0    0    0    0    0    0   57    0   57    0

> <minimizedAffinity>
-6.26407

> <CNNscore>
0.5569483638

> <CNNaffinity>
5.2804603577

> <CNN_VS>
2.9409437180

> <CNNaffinity_variance>
0.0558412448

$$$$



 28 28  0  0  0  0  0  0  0  0999 V2000
    8.9337  -24.7930   -7.4669 C   0  0  0  0  0  0  0  0  0  0  0  0
    8.2258  -24.9822   -6.1074 C   0  0  0  0  0  0  0  0  0  0  0  0
    9.3332  -25.0418   -5.0534 C   0  0  0  0  0  0  0  0  0  0  0  0
   10.5373  -25.4323   -5.8252 C   0  0  0  0  0  0  0  0  0  0  0  0
   11.5933  -25.7442   -5.2960 O   0  0  0  0  0  0  0  0  0  0  0  0
   10.3253  -25.4388   -7.2998 C   0  0  0  0  0  0  0  0  0  0  0  0
    7.3545  -23.9160   -5.8323 O   0  0  0  0  0  0  0  0  0  0  0  0
    6.4934  -24.1293   -6.2757 H   0  0  0  0  0  0  0  0  0  0  0  0
    6.9814  -24.8936   -9.0066 C   0  0  0  0  0  0  0  0  0  0  0  0
    8.1552  -25.4071   -8.6067 C   0  0  0  0  0  0  0  0  0  0  0  0
    6.1725  -25.5157  -10.1233 C   0  0  0  0  0  0  0  0  0  0  0  0
    4.9027  -24.9183  -10.1845 O   0  0  0  0  0  0  0  0  0  0  0  0
    4.3951  -25.2440   -9.3951 H   0  0  0  0  0  0  0  0  0  0  0  0
    6.8705  -25.3614  -11.4865 C   0  0  0  0  0  0  0  0  0  0  0  0
    5.8724  -25.4042  -12.6581 C   0  0  0  0  0  0  0  0  0  0  0  0
    5.7441  -24.0505  -13.3737 C   0  0  0  0  0  0  0  0  0  0  0  0
    5.1612  -24.2437  -15.8247 C   0  0  0  0  0  0  0  0  0  0  0  0
    4.6136  -24.0404  -14.4154 C   0  0  0  0  0  0  0  0  0  0  0  0
   11.4344  -24.7113   -8.0911 C   0  0  0  0  0  0  0  0  0  0  0  0
   11.7556  -23.3262   -7.5732 C   0  0  0  0  0  0  0  0  0  0  0  0
   13.0062  -22.8901   -7.3452 C   0  0  0  0  0  0  0  0  0  0  0  0
   14.2607  -23.6923   -7.6060 C   0  0  0  0  0  0  0  0  0  0  0  0
   14.9038  -24.1670   -6.2942 C   0  0  0  0  0  0  0  0  0  0  0  0
   14.5388  -25.6138   -5.9155 C   0  0  0  0  0  0  0  0  0  0  0  0
   14.7446  -25.8838   -4.4545 C   0  0  0  0  0  0  0  0  0  0  0  0
   15.7537  -25.4118   -3.8650 O   0  0  0  0  0  0  0  0  0  0  0  0
   13.8367  -26.6669   -3.7482 O   0  0  0  0  0  0  0  0  0  0  0  0
   13.9715  -26.8579   -2.7635 H   0  0  0  0  0  0  0  0  0  0  0  0
 17 18  1  0  0  0
 18 16  1  0  0  0
 16 15  1  0  0  0
 15 14  1  0  0  0
 14 11  1  0  0  0
 11  9  1  0  0  0
 11 12  1  0  0  0
  9 10  2  0  0  0
 10  1  1  0  0  0
  1  2  1  0  0  0
  1  6  1  0  0  0
  2  3  1  0  0  0
  2  7  1  0  0  0
  3  4  1  0  0  0
  4  5  2  0  0  0
  4  6  1  0  0  0
  6 19  1  0  0  0
 19 20  1  0  0  0
 20 21  2  0  0  0
 21 22  1  0  0  0
 22 23  1  0  0  0
 23 24  1  0  0  0
 24 25  1  0  0  0
 25 26  2  0  0  0
 25 27  1  0  0  0
 27 28  1  0  0  0
  7  8  1  0  0  0
 12 13  1  0  0  0
M  END
> <COMPND>
    KG8hKT.pdb 

> <AUTHOR>
    GENERATED BY OPEN BABEL 3.1.0

> <MASTER>
        0    0    0    0    0    0    0    0   57    0   57    0

> <minimizedAffinity>
-6.70991

> <CNNscore>
0.5490753055

> <CNNaffinity>
5.3951096535

> <CNN_VS>
2.9623215199

> <CNNaffinity_variance>
0.0880323499

$$$$



 28 28  0  0  0  0  0  0  0  0999 V2000
    9.0391  -25.4562   -9.1325 C   0  0  0  0  0  0  0  0  0  0  0  0
    7.9523  -25.1697   -8.0731 C   0  0  0  0  0  0  0  0  0  0  0  0
    6.6090  -25.2886   -8.7959 C   0  0  0  0  0  0  0  0  0  0  0  0
    6.9542  -25.0829  -10.2229 C   0  0  0  0  0  0  0  0  0  0  0  0
    6.1119  -24.9408  -11.0964 O   0  0  0  0  0  0  0  0  0  0  0  0
    8.4205  -25.0336  -10.4816 C   0  0  0  0  0  0  0  0  0  0  0  0
    8.0144  -26.0910   -7.0154 O   0  0  0  0  0  0  0  0  0  0  0  0
    8.6872  -25.7446   -6.3742 H   0  0  0  0  0  0  0  0  0  0  0  0
   10.3319  -23.5602   -8.1702 C   0  0  0  0  0  0  0  0  0  0  0  0
   10.3270  -24.7218   -8.8426 C   0  0  0  0  0  0  0  0  0  0  0  0
   11.6084  -22.7946   -7.9008 C   0  0  0  0  0  0  0  0  0  0  0  0
   12.2471  -22.4873   -9.1135 O   0  0  0  0  0  0  0  0  0  0  0  0
   12.6214  -23.3386   -9.4633 H   0  0  0  0  0  0  0  0  0  0  0  0
   11.3386  -21.4917   -7.1268 C   0  0  0  0  0  0  0  0  0  0  0  0
   12.6370  -20.8401   -6.6164 C   0  0  0  0  0  0  0  0  0  0  0  0
   12.7362  -19.3524   -6.9879 C   0  0  0  0  0  0  0  0  0  0  0  0
   10.9588  -17.5862   -7.3136 C   0  0  0  0  0  0  0  0  0  0  0  0
   11.5560  -18.8820   -7.8535 C   0  0  0  0  0  0  0  0  0  0  0  0
    8.8738  -25.9177  -11.6642 C   0  0  0  0  0  0  0  0  0  0  0  0
    8.3259  -27.3277  -11.6269 C   0  0  0  0  0  0  0  0  0  0  0  0
    7.6045  -27.8706  -12.6223 C   0  0  0  0  0  0  0  0  0  0  0  0
    7.2720  -27.1779  -13.9242 C   0  0  0  0  0  0  0  0  0  0  0  0
    5.8194  -27.4462  -14.3455 C   0  0  0  0  0  0  0  0  0  0  0  0
    4.8062  -27.3033  -13.1952 C   0  0  0  0  0  0  0  0  0  0  0  0
    3.6684  -28.2725  -13.3218 C   0  0  0  0  0  0  0  0  0  0  0  0
    3.5733  -29.2375  -12.5166 O   0  0  0  0  0  0  0  0  0  0  0  0
    2.7252  -28.1230  -14.3339 O   0  0  0  0  0  0  0  0  0  0  0  0
    1.9578  -28.7759  -14.4291 H   0  0  0  0  0  0  0  0  0  0  0  0
 17 18  1  0  0  0
 18 16  1  0  0  0
 16 15  1  0  0  0
 15 14  1  0  0  0
 14 11  1  0  0  0
 11  9  1  0  0  0
 11 12  1  0  0  0
  9 10  2  0  0  0
 10  1  1  0  0  0
  1  2  1  0  0  0
  1  6  1  0  0  0
  2  3  1  0  0  0
  2  7  1  0  0  0
  3  4  1  0  0  0
  4  5  2  0  0  0
  4  6  1  0  0  0
  6 19  1  0  0  0
 19 20  1  0  0  0
 20 21  2  0  0  0
 21 22  1  0  0  0
 22 23  1  0  0  0
 23 24  1  0  0  0
 24 25  1  0  0  0
 25 26  2  0  0  0
 25 27  1  0  0  0
 27 28  1  0  0  0
  7  8  1  0  0  0
 12 13  1  0  0  0
M  END
> <COMPND>
    KG8hKT.pdb 

> <AUTHOR>
    GENERATED BY OPEN BABEL 3.1.0

> <MASTER>
        0    0    0    0    0    0    0    0   57    0   57    0

> <minimizedAffinity>
-6.22082

> <CNNscore>
0.5409548879

> <CNNaffinity>
5.2329921722

> <CNN_VS>
2.8308126926

> <CNNaffinity_variance>
0.1630398780

$$$$
